/*--------------------------------*- C++ -*----------------------------------*\
| =========                 |                                                 |
| \\      /  F ield         | OpenFOAM: The Open Source CFD Toolbox           |
|  \\    /   O peration     | Version:  v2012                                 |
|   \\  /    A nd           | Website:  www.openfoam.com                      |
|    \\/     M anipulation  |                                                 |
\*---------------------------------------------------------------------------*/
FoamFile
{
    version     2.0;
    format      ascii;
    class       dictionary;
    location    "system";
    object      controlDict;
}
// * * * * * * * * * * * * * * * * * * * * * * * * * * * * * * * * * * * * * //

application     pimpleFoam;

startFrom       latestTime;

startTime       0;

stopAt          endTime;

endTime         1.9;

deltaT          10e-6;

writeControl    adjustable;

writeInterval   0.01; 

purgeWrite      50;

writeFormat     ascii;

writePrecision  8;

writeCompression off;

timeFormat      general;

timePrecision   8;

runTimeModifiable yes;

maxCo   0.5;

functions
{
    #include "CurleControl"
    #include "fwhControl"

    //#include "OFCurle" //OpenFOAM Curle analogy

    forces
    {
        type            forces;
        libs            (forces);
        writeControl    writeTime;
        timeStart       0;

        patches         (cylinder);
        CofR            (0.10 0.15 -0.0157);
        writeFields     yes;

        rho             rhoInf;
        rhoInf          1.1987;
    }
    forceCoeffs
    {
        type                forceCoeffs;
        libs                ( "libforces.so" );
        writeControl        timeStep;
        timeInterval        1;
     
        patches             ("cylinder");
        rho                 rhoInf;
        log                 true;
         
        liftDir             (0 1 0);
        dragDir             (1 0 0);
        CofR                (0.10 0.15 -0.0157);
        pitchAxis           (0 0 1);
         
        magUInf             7.6;
        rhoInf              1.1987;
        lRef                0.02;
        Aref                6.28e-4;
    }
    /*
    yPlus
    {
    type yPlus;
    libs (fieldFunctionObjects);
    patches (cylinder);
    writeControl adjustable;
    writeInterval 0.01;
    writeToFile true;
    timeStart 0;
    timeEnd 1.6;
    executeControl timeStep;
    executeInterval 1;
    }
    */
    fieldAverage
    {
        type            fieldAverage;
        functionObjectLibs ("libfieldFunctionObjects.so");
        enabled         true;
        writeControl   outputTime;

	//writeControl   timeStep;
	//writeInterval  100;

	//cleanRestart true;

	timeStart       0.8;
	//timeEnd         200;

        fields
        (
            U
            {
                mean        on;
                prime2Mean  on;
                base        time;
            }

            p
            {
                mean        on;
                prime2Mean  on;
                base        time;
            }

            nut
            {
                mean        on;
                prime2Mean  on;
                base        time;
            }
        );
    }
    probes
    {
        // Where to load it from
        libs            (sampling);

        type            probes;

        // Name of the directory for probe data
        name            probes;

        // Write at same frequency as fields
        writeControl    writeTime;
        writeInterval   1;

        // Fields to be probed
        fields
        (
            p U
        );

        probeLocations
        (
            (0.1506 0.171624 -0.0157)
        );
    }

}


// ************************************************************************* //
