/*--------------------------------*- C++ -*----------------------------------*\
| =========                 |                                                 |
| \\      /  F ield         | OpenFOAM: The Open Source CFD Toolbox           |
|  \\    /   O peration     | Version:  v2012                                 |
|   \\  /    A nd           | Website:  www.openfoam.com                      |
|    \\/     M anipulation  |                                                 |
\*---------------------------------------------------------------------------*/
FoamFile
{
    version     2.0;
    format      ascii;
    class       dictionary;
    location    "system";
    object      fvSolution;
}
// * * * * * * * * * * * * * * * * * * * * * * * * * * * * * * * * * * * * * //

solvers
{
    p
    {
        solver           GAMG;
        tolerance        1e-8;
        relTol           0; //switch to 0 for LES
        smoother         GaussSeidel;
        nPreSweeps       0;
        nPostSweeps      2;
        cacheAgglomeration on;
        agglomerator     faceAreaPair;
        nCellsInCoarsestLevel 100;
        mergeLevels      1;
	    minIter		 3;
    }

    pFinal
    {
	    $p;
        tolerance        1e-6;
	    relTol		 0;
	    minIter		 1;
    }

    U
    {
        solver          PBiCGStab;
        preconditioner  DILU;
        tolerance       1e-08;
        relTol          0.0;
    }

    UFinal
    {
        solver          PBiCGStab;
        preconditioner  DILU;
        tolerance       1e-08;
        relTol          0;
	minIter		1;
    }
    k
    {
        //solver          smoothSolver;
        //smoother 	  GaussSeidel;

        solver          PBiCGStab;
        preconditioner  DILU;
	tolerance       1e-08;
        relTol          0.001;
        //relTol          0;
    }

    omega
    {
        //solver          smoothSolver;
        //smoother 	  GaussSeidel;
     
	solver          PBiCGStab;
        preconditioner  DILU;
	tolerance       1e-08;
        relTol          0.001;
        //relTol          0;
    }
}


PIMPLE
{
    momentumPredictor yes;
    nOuterCorrectors 2;
    nCorrectors     2;
    nNonOrthogonalCorrectors 0;
    transonic       no;
    consistent      no;
}

relaxationFactors
{
    nuTilda         0.9;
    U               0.9;
    p               0.9;
    ".*Final"        1.0;
}


// ************************************************************************* //
